This is some text.

Here's another line of text.

A new new line of text.

new line.
